LTspice 24.0.12 for Windows
Circuit: * C:\Users\HP\OneDrive\Documents\LTspice\DC bias opamp.asc
Start Time: Fri May 30 08:41:11 2025
Ignoring BSIM parameter XL
Ignoring BSIM parameter XW
Ignoring BSIM parameter XL
Ignoring BSIM parameter XW
solver = Normal
Maximum thread count: 8
tnom = 27
temp = 27
method = modified trap
WARNING: Node N011 is floating.
WARNING: Node N006 is floating.
WARNING: Node N012 is floating.
WARNING: Node N013 is floating.
WARNING: Node N003 is floating.
WARNING: Node N004 is floating.

WARNING: Less than two connections to node n011.  This node is used by m0.
WARNING: Less than two connections to node n006.  This node is used by m5.
WARNING: Less than two connections to node n012.  This node is used by m7.
WARNING: Less than two connections to node n013.  This node is used by m6.
WARNING: Less than two connections to node n003.  This node is used by m3.
WARNING: Less than two connections to node n004.  This node is used by m4.
Warning: Pd = 0 is less than W.
Warning: Ps = 0 is less than W.
Warning: Pd = 0 is less than W.
Warning: Ps = 0 is less than W.
Warning: Pd = 0 is less than W.
Warning: Ps = 0 is less than W.
Warning: Pd = 0 is less than W.
Warning: Ps = 0 is less than W.
Warning: Pd = 0 is less than W.
Warning: Ps = 0 is less than W.
Warning: Pd = 0 is less than W.
Warning: Ps = 0 is less than W.
Direct Newton iteration for .op point succeeded.
Total elapsed time: 0.261 seconds.

