LTspice 24.0.12 for Windows
Circuit: * C:\Users\HP\OneDrive\Documents\LTspice\Non-inverting opamp.asc
Start Time: Fri May 30 08:41:15 2025
Ignoring BSIM parameter XL
Ignoring BSIM parameter XW
Ignoring BSIM parameter XL
Ignoring BSIM parameter XW
solver = Normal
Maximum thread count: 8
tnom = 27
temp = 27
method = modified trap
WARNING: Node N013 is floating.
WARNING: Node N007 is floating.
WARNING: Node N014 is floating.
WARNING: Node N015 is floating.
WARNING: Node N004 is floating.
WARNING: Node N005 is floating.

WARNING: Less than two connections to node n013.  This node is used by m0.
WARNING: Less than two connections to node n007.  This node is used by m5.
WARNING: Less than two connections to node n014.  This node is used by m7.
WARNING: Less than two connections to node n015.  This node is used by m6.
WARNING: Less than two connections to node n004.  This node is used by m3.
WARNING: Less than two connections to node n005.  This node is used by m4.
Warning: Pd = 0 is less than W.
Warning: Ps = 0 is less than W.
Warning: Pd = 0 is less than W.
Warning: Ps = 0 is less than W.
Warning: Pd = 0 is less than W.
Warning: Ps = 0 is less than W.
Warning: Pd = 0 is less than W.
Warning: Ps = 0 is less than W.
Warning: Pd = 0 is less than W.
Warning: Ps = 0 is less than W.
Warning: Pd = 0 is less than W.
Warning: Ps = 0 is less than W.
Early termination of direct N-R iteration.
Direct Newton iteration failed to find .op point.  (Use ".option noopiter" to skip.)
Starting Gmin stepping
Gmin = 10
Gmin = 1.07374
Gmin = 0.115292
Gmin = 0.0123794
Gmin = 0.00132923
Gmin = 0.000142725
Gmin = 1.5325e-05
Gmin = 1.6455e-06
Gmin = 1.76685e-07
Gmin = 1.89714e-08
Gmin = 2.03704e-09
Gmin = 2.18725e-10
Gmin = 2.34854e-11
Gmin = 2.52173e-12
Gmin = 2.70769e-13
Gmin = 0
Gmin stepping succeeded in finding the operating point.

Total elapsed time: 0.202 seconds.

